FoamFile
{
    version     2.0;
    format      ascii;
    class       volVectorField;
    object      U;
}
// * * * * * * * * * * * * * * * * * * * * * * * * * * * * * * * * * * * * * //

dimensions      [0 1 -1 0 0 0 0];
internalField   uniform (0 0 0);

boundaryField
{

    fixed
    {
        type            noSlip;
    }    

    flap
    {
        type            movingWallVelocity;
        value           uniform (0 0 0);
    }

    up
    {
        type           noSlip;
    }

    down
    {
        type           noSlip;
    }

    left
    {
        type            uniformFixedValue;
        uniformValue  table
(
  (	0	(	0	0	0	)	)
(	0.0005	(	6.02391637155586E-06	0	0	)	)
(	0.001	(	2.40955203359983E-05	0	0	)	)
(	0.0015	(	5.42143764459824E-05	0	0	)	)
(	0.002	(	9.63797589675908E-05	0	0	)	)
(	0.0025	(	0.000150590651898	0	0	)	)
(	0.003	(	0.000216845748989	0	0	)	)
(	0.0035	(	0.000295143453781	0	0	)	)
(	0.004	(	0.000385481879639	0	0	)	)
(	0.0045	(	0.000487858849796	0	0	)	)
(	0.005	(	0.000602271897414	0	0	)	)
(	0.0055	(	0.000728718265632	0	0	)	)
(	0.006	(	0.000867194907642	0	0	)	)
(	0.0065	(	0.001017698486757	0	0	)	)
(	0.007	(	0.001180225376492	0	0	)	)
(	0.0075	(	0.001354771660655	0	0	)	)
(	0.008	(	0.001541333133436	0	0	)	)
(	0.0085	(	0.001739905299513	0	0	)	)
(	0.009	(	0.001950483374156	0	0	)	)
(	0.0095	(	0.002173062283348	0	0	)	)
(	0.01	(	0.002407636663902	0	0	)	)
(	0.0105	(	0.00265420086359	0	0	)	)
(	0.011	(	0.002912748941286	0	0	)	)
(	0.0115	(	0.003183274667101	0	0	)	)
(	0.012	(	0.003465771522537	0	0	)	)
(	0.0125	(	0.003760232700645	0	0	)	)
(	0.013	(	0.004066651106187	0	0	)	)
(	0.0135	(	0.004385019355807	0	0	)	)
(	0.014	(	0.004715329778211	0	0	)	)
(	0.0145	(	0.00505757441435	0	0	)	)
(	0.015	(	0.00541174501761	0	0	)	)
(	0.0155	(	0.005777833054015	0	0	)	)
(	0.016	(	0.006155829702431	0	0	)	)
(	0.0165	(	0.006545725854777	0	0	)	)
(	0.017	(	0.006947512116246	0	0	)	)
(	0.0175	(	0.007361178805529	0	0	)	)
(	0.018	(	0.007786715955054	0	0	)	)
(	0.0185	(	0.008224113311219	0	0	)	)
(	0.019	(	0.008673360334644	0	0	)	)
(	0.0195	(	0.009134446200423	0	0	)	)
(	0.02	(	0.009607359798385	0	0	)	)
(	0.0205	(	0.010092089733362	0	0	)	)
(	0.021	(	0.010588624325464	0	0	)	)
(	0.0215	(	0.011096951610359	0	0	)	)
(	0.022	(	0.011617059339564	0	0	)	)
(	0.0225	(	0.012148934980736	0	0	)	)
(	0.023	(	0.012692565717978	0	0	)	)
(	0.0235	(	0.013247938452145	0	0	)	)
(	0.024	(	0.013815039801162	0	0	)	)
(	0.0245	(	0.014393856100344	0	0	)	)
(	0.025	(	0.014984373402728	0	0	)	)
(	0.0255	(	0.015586577479406	0	0	)	)
(	0.026	(	0.01620045381987	0	0	)	)
(	0.0265	(	0.016825987632361	0	0	)	)
(	0.027	(	0.017463163844226	0	0	)	)
(	0.0275	(	0.01811196710228	0	0	)	)
(	0.028	(	0.018772381773176	0	0	)	)
(	0.0285	(	0.019444391943784	0	0	)	)
(	0.029	(	0.020127981421571	0	0	)	)
(	0.0295	(	0.020823133734994	0	0	)	)
(	0.03	(	0.021529832133896	0	0	)	)
(	0.0305	(	0.022248059589907	0	0	)	)
(	0.031	(	0.02297779879686	0	0	)	)
(	0.0315	(	0.023719032171202	0	0	)	)
(	0.032	(	0.024471741852423	0	0	)	)
(	0.0325	(	0.025235909703482	0	0	)	)
(	0.033	(	0.026011517311245	0	0	)	)
(	0.0335	(	0.026798545986931	0	0	)	)
(	0.034	(	0.027596976766561	0	0	)	)
(	0.0345	(	0.028406790411413	0	0	)	)
(	0.035	(	0.02922796740849	0	0	)	)
(	0.0355	(	0.030060487970984	0	0	)	)
(	0.036	(	0.030904332038758	0	0	)	)
(	0.0365	(	0.031759479278829	0	0	)	)
(	0.037	(	0.032625909085854	0	0	)	)
(	0.0375	(	0.033503600582631	0	0	)	)
(	0.038	(	0.034392532620598	0	0	)	)
(	0.0385	(	0.035292683780348	0	0	)	)
(	0.039	(	0.036204032372138	0	0	)	)
(	0.0395	(	0.037126556436418	0	0	)	)
(	0.04	(	0.038060233744357	0	0	)	)
(	0.0405	(	0.039005041798378	0	0	)	)
(	0.041	(	0.039960957832703	0	0	)	)
(	0.0415	(	0.040927958813898	0	0	)	)
(	0.042	(	0.041906021441432	0	0	)	)
(	0.0425	(	0.042895122148235	0	0	)	)
(	0.043	(	0.043895237101266	0	0	)	)
(	0.0435	(	0.044906342202091	0	0	)	)
(	0.044	(	0.045928413087459	0	0	)	)
(	0.0445	(	0.046961425129893	0	0	)	)
(	0.045	(	0.048005353438278	0	0	)	)
(	0.0455	(	0.049060172858469	0	0	)	)
(	0.046	(	0.050125857973889	0	0	)	)
(	0.0465	(	0.051202383106147	0	0	)	)
(	0.047	(	0.052289722315652	0	0	)	)
(	0.0475	(	0.053387849402242	0	0	)	)
(	0.048	(	0.054496737905816	0	0	)	)
(	0.0485	(	0.055616361106966	0	0	)	)
(	0.049	(	0.056746692027627	0	0	)	)
(	0.0495	(	0.057887703431722	0	0	)	)
(	0.05	(	0.059039367825823	0	0	)	)
(	0.0505	(	0.060201657459809	0	0	)	)
(	0.051	(	0.061374544327538	0	0	)	)
(	0.0515	(	0.062558000167521	0	0	)	)
(	0.052	(	0.063751996463602	0	0	)	)
(	0.0525	(	0.064956504445644	0	0	)	)
(	0.053	(	0.066171495090228	0	0	)	)
(	0.0535	(	0.067396939121344	0	0	)	)
(	0.054	(	0.068632807011104	0	0	)	)
(	0.0545	(	0.069879068980448	0	0	)	)
(	0.055	(	0.071135694999864	0	0	)	)
(	0.0555	(	0.072402654790113	0	0	)	)
(	0.056	(	0.073679917822954	0	0	)	)
(	0.0565	(	0.074967453321886	0	0	)	)
(	0.057	(	0.076265230262883	0	0	)	)
(	0.0575	(	0.077573217375147	0	0	)	)
(	0.058	(	0.078891383141857	0	0	)	)
(	0.0585	(	0.080219695800932	0	0	)	)
(	0.059	(	0.081558123345795	0	0	)	)
(	0.0595	(	0.082906633526144	0	0	)	)
(	0.06	(	0.084265193848727	0	0	)	)
(	0.0605	(	0.085633771578131	0	0	)	)
(	0.061	(	0.087012333737563	0	0	)	)
(	0.0615	(	0.088400847109652	0	0	)	)
(	0.062	(	0.089799278237243	0	0	)	)
(	0.0625	(	0.091207593424208	0	0	)	)
(	0.063	(	0.092625758736255	0	0	)	)
(	0.0635	(	0.094053740001748	0	0	)	)
(	0.064	(	0.095491502812526	0	0	)	)
(	0.0645	(	0.09693901252474	0	0	)	)
(	0.065	(	0.098396234259678	0	0	)	)
(	0.0655	(	0.099863132904613	0	0	)	)
(	0.066	(	0.101339673113646	0	0	)	)
(	0.0665	(	0.102825819308559	0	0	)	)
(	0.067	(	0.10432153567967	0	0	)	)
(	0.0675	(	0.105826786186697	0	0	)	)
(	0.068	(	0.107341534559628	0	0	)	)
(	0.0685	(	0.108865744299592	0	0	)	)
(	0.069	(	0.110399378679742	0	0	)	)
(	0.0695	(	0.111942400746136	0	0	)	)
(	0.07	(	0.113494773318632	0	0	)	)
(	0.0705	(	0.115056458991778	0	0	)	)
(	0.071	(	0.116627420135719	0	0	)	)
(	0.0715	(	0.118207618897102	0	0	)	)
(	0.072	(	0.119797017199985	0	0	)	)
(	0.0725	(	0.121395576746758	0	0	)	)
(	0.073	(	0.123003259019065	0	0	)	)
(	0.0735	(	0.124620025278733	0	0	)	)
(	0.074	(	0.126245836568702	0	0	)	)
(	0.0745	(	0.127880653713966	0	0	)	)
(	0.075	(	0.12952443732252	0	0	)	)
(	0.0755	(	0.131177147786304	0	0	)	)
(	0.076	(	0.132838745282157	0	0	)	)
(	0.0765	(	0.134509189772784	0	0	)	)
(	0.077	(	0.136188441007713	0	0	)	)
(	0.0775	(	0.137876458524266	0	0	)	)
(	0.078	(	0.139573201648541	0	0	)	)
(	0.0785	(	0.14127862949638	0	0	)	)
(	0.079	(	0.142992700974366	0	0	)	)
(	0.0795	(	0.144715374780805	0	0	)	)
(	0.08	(	0.146446609406726	0	0	)	)
(	0.0805	(	0.148186363136879	0	0	)	)
(	0.081	(	0.149934594050738	0	0	)	)
(	0.0815	(	0.151691260023518	0	0	)	)
(	0.082	(	0.153456318727182	0	0	)	)
(	0.0825	(	0.155229727631467	0	0	)	)
(	0.083	(	0.157011444004904	0	0	)	)
(	0.0835	(	0.158801424915852	0	0	)	)
(	0.084	(	0.160599627233529	0	0	)	)
(	0.0845	(	0.162406007629055	0	0	)	)
(	0.085	(	0.164220522576491	0	0	)	)
(	0.0855	(	0.166043128353892	0	0	)	)
(	0.086	(	0.167873781044359	0	0	)	)
(	0.0865	(	0.169712436537098	0	0	)	)
(	0.087	(	0.171559050528479	0	0	)	)
(	0.0875	(	0.173413578523112	0	0	)	)
(	0.088	(	0.175275975834908	0	0	)	)
(	0.0885	(	0.177146197588166	0	0	)	)
(	0.089	(	0.179024198718648	0	0	)	)
(	0.0895	(	0.180909933974667	0	0	)	)
(	0.09	(	0.182803357918177	0	0	)	)
(	0.0905	(	0.184704424925868	0	0	)	)
(	0.091	(	0.186613089190265	0	0	)	)
(	0.0915	(	0.188529304720833	0	0	)	)
(	0.092	(	0.190453025345083	0	0	)	)
(	0.0925	(	0.192384204709687	0	0	)	)
(	0.093	(	0.194322796281592	0	0	)	)
(	0.0935	(	0.196268753349144	0	0	)	)
(	0.094	(	0.198222029023214	0	0	)	)
(	0.0945	(	0.200182576238324	0	0	)	)
(	0.095	(	0.202150347753783	0	0	)	)
(	0.0955	(	0.204125296154828	0	0	)	)
(	0.096	(	0.206107373853763	0	0	)	)
(	0.0965	(	0.208096533091107	0	0	)	)
(	0.097	(	0.210092725936743	0	0	)	)
(	0.0975	(	0.212095904291077	0	0	)	)
(	0.098	(	0.214106019886194	0	0	)	)
(	0.0985	(	0.21612302428702	0	0	)	)
(	0.099	(	0.218146868892492	0	0	)	)
(	0.0995	(	0.220177504936727	0	0	)	)
(	0.1	(	0.222214883490199	0	0	)	)
(	0.1005	(	0.224258955460915	0	0	)	)
(	0.101	(	0.226309671595602	0	0	)	)
(	0.1015	(	0.228366982480888	0	0	)	)
(	0.102	(	0.2304308385445	0	0	)	)
(	0.1025	(	0.232501190056451	0	0	)	)
(	0.103	(	0.234577987130245	0	0	)	)
(	0.1035	(	0.236661179724074	0	0	)	)
(	0.104	(	0.238750717642026	0	0	)	)
(	0.1045	(	0.240846550535293	0	0	)	)
(	0.105	(	0.242948627903389	0	0	)	)
(	0.1055	(	0.24505689909536	0	0	)	)
(	0.106	(	0.247171313311008	0	0	)	)
(	0.1065	(	0.249291819602115	0	0	)	)
(	0.107	(	0.251418366873673	0	0	)	)
(	0.1075	(	0.253550903885108	0	0	)	)
(	0.108	(	0.255689379251522	0	0	)	)
(	0.1085	(	0.257833741444929	0	0	)	)
(	0.109	(	0.259983938795494	0	0	)	)
(	0.1095	(	0.262139919492781	0	0	)	)
(	0.11	(	0.264301631587001	0	0	)	)
(	0.1105	(	0.266469022990262	0	0	)	)
(	0.111	(	0.268642041477825	0	0	)	)
(	0.1115	(	0.270820634689364	0	0	)	)
(	0.112	(	0.273004750130227	0	0	)	)
(	0.1125	(	0.275194335172697	0	0	)	)
(	0.113	(	0.277389337057266	0	0	)	)
(	0.1135	(	0.279589702893903	0	0	)	)
(	0.114	(	0.281795379663329	0	0	)	)
(	0.1145	(	0.284006314218294	0	0	)	)
(	0.115	(	0.286222453284859	0	0	)	)
(	0.1155	(	0.288443743463678	0	0	)	)
(	0.116	(	0.290670131231286	0	0	)	)
(	0.1165	(	0.292901562941388	0	0	)	)
(	0.117	(	0.295137984826152	0	0	)	)
(	0.1175	(	0.297379342997505	0	0	)	)
(	0.118	(	0.29962558344843	0	0	)	)
(	0.1185	(	0.301876652054267	0	0	)	)
(	0.119	(	0.304132494574022	0	0	)	)
(	0.1195	(	0.306393056651667	0	0	)	)
(	0.12	(	0.308658283817455	0	0	)	)
(	0.1205	(	0.31092812148923	0	0	)	)
(	0.121	(	0.313202514973742	0	0	)	)
(	0.1215	(	0.315481409467967	0	0	)	)
(	0.122	(	0.317764750060425	0	0	)	)
(	0.1225	(	0.320052481732506	0	0	)	)
(	0.123	(	0.322344549359792	0	0	)	)
(	0.1235	(	0.324640897713388	0	0	)	)
(	0.124	(	0.326941471461254	0	0	)	)
(	0.1245	(	0.329246215169532	0	0	)	)
(	0.125	(	0.33155507330389	0	0	)	)
(	0.1255	(	0.333867990230855	0	0	)	)
(	0.126	(	0.336184910219153	0	0	)	)
(	0.1265	(	0.338505777441057	0	0	)	)
(	0.127	(	0.340830535973725	0	0	)	)
(	0.1275	(	0.343159129800554	0	0	)	)
(	0.128	(	0.345491502812526	0	0	)	)
(	0.1285	(	0.347827598809561	0	0	)	)
(	0.129	(	0.350167361501872	0	0	)	)
(	0.1295	(	0.352510734511318	0	0	)	)
(	0.13	(	0.354857661372769	0	0	)	)
(	0.1305	(	0.357208085535459	0	0	)	)
(	0.131	(	0.359561950364354	0	0	)	)
(	0.1315	(	0.361919199141515	0	0	)	)
(	0.132	(	0.364279775067463	0	0	)	)
(	0.1325	(	0.366643621262551	0	0	)	)
(	0.133	(	0.369010680768331	0	0	)	)
(	0.1335	(	0.37138089654893	0	0	)	)
(	0.134	(	0.373754211492421	0	0	)	)
(	0.1345	(	0.376130568412201	0	0	)	)
(	0.135	(	0.378509910048368	0	0	)	)
(	0.1355	(	0.380892179069103	0	0	)	)
(	0.136	(	0.383277318072047	0	0	)	)
(	0.1365	(	0.38566526958569	0	0	)	)
(	0.137	(	0.388055976070751	0	0	)	)
(	0.1375	(	0.390449379921565	0	0	)	)
(	0.138	(	0.392845423467475	0	0	)	)
(	0.1385	(	0.395244048974216	0	0	)	)
(	0.139	(	0.39764519864531	0	0	)	)
(	0.1395	(	0.400048814623459	0	0	)	)
(	0.14	(	0.402454838991936	0	0	)	)
(	0.1405	(	0.404863213775982	0	0	)	)
(	0.141	(	0.407273880944205	0	0	)	)
(	0.1415	(	0.409686782409974	0	0	)	)
(	0.142	(	0.412101860032823	0	0	)	)
(	0.1425	(	0.41451905561985	0	0	)	)
(	0.143	(	0.416938310927117	0	0	)	)
(	0.1435	(	0.41935956766106	0	0	)	)
(	0.144	(	0.421782767479885	0	0	)	)
(	0.1445	(	0.424207851994979	0	0	)	)
(	0.145	(	0.426634762772319	0	0	)	)
(	0.1455	(	0.429063441333873	0	0	)	)
(	0.146	(	0.431493829159016	0	0	)	)
(	0.1465	(	0.433925867685935	0	0	)	)
(	0.147	(	0.436359498313043	0	0	)	)
(	0.1475	(	0.438794662400392	0	0	)	)
(	0.148	(	0.441231301271081	0	0	)	)
(	0.1485	(	0.443669356212676	0	0	)	)
(	0.149	(	0.44610876847862	0	0	)	)
(	0.1495	(	0.448549479289652	0	0	)	)
(	0.15	(	0.45099142983522	0	0	)	)
(	0.1505	(	0.4534345612749	0	0	)	)
(	0.151	(	0.455878814739815	0	0	)	)
(	0.1515	(	0.458324131334051	0	0	)	)
(	0.152	(	0.460770452136078	0	0	)	)
(	0.1525	(	0.463217718200166	0	0	)	)
(	0.153	(	0.465665870557813	0	0	)	)
(	0.1535	(	0.468114850219158	0	0	)	)
(	0.154	(	0.470564598174405	0	0	)	)
(	0.1545	(	0.473015055395249	0	0	)	)
(	0.155	(	0.475466162836291	0	0	)	)
(	0.1555	(	0.477917861436466	0	0	)	)
(	0.156	(	0.480370092120466	0	0	)	)
(	0.1565	(	0.482822795800159	0	0	)	)
(	0.157	(	0.485275913376018	0	0	)	)
(	0.1575	(	0.487729385738544	0	0	)	)
(	0.158	(	0.490183153769686	0	0	)	)
(	0.1585	(	0.492637158344271	0	0	)	)
(	0.159	(	0.495091340331425	0	0	)	)
(	0.1595	(	0.497545640596001	0	0	)	)
(	0.16	(	0.5	0	0	)	)
(	0.1605	(	0.502454359403999	0	0	)	)
(	0.161	(	0.504908659668575	0	0	)	)
(	0.1615	(	0.507362841655729	0	0	)	)
(	0.162	(	0.509816846230314	0	0	)	)
(	0.1625	(	0.512270614261456	0	0	)	)
(	0.163	(	0.514724086623982	0	0	)	)
(	0.1635	(	0.517177204199841	0	0	)	)
(	0.164	(	0.519629907879534	0	0	)	)
(	0.1645	(	0.522082138563534	0	0	)	)
(	0.165	(	0.524533837163709	0	0	)	)
(	0.1655	(	0.526984944604751	0	0	)	)
(	0.166	(	0.529435401825595	0	0	)	)
(	0.1665	(	0.531885149780842	0	0	)	)
(	0.167	(	0.534334129442187	0	0	)	)
(	0.1675	(	0.536782281799834	0	0	)	)
(	0.168	(	0.539229547863922	0	0	)	)
(	0.1685	(	0.541675868665949	0	0	)	)
(	0.169	(	0.544121185260185	0	0	)	)
(	0.1695	(	0.5465654387251	0	0	)	)
(	0.17	(	0.549008570164781	0	0	)	)
(	0.1705	(	0.551450520710348	0	0	)	)
(	0.171	(	0.55389123152138	0	0	)	)
(	0.1715	(	0.556330643787324	0	0	)	)
(	0.172	(	0.558768698728919	0	0	)	)
(	0.1725	(	0.561205337599608	0	0	)	)
(	0.173	(	0.563640501686957	0	0	)	)
(	0.1735	(	0.566074132314065	0	0	)	)
(	0.174	(	0.568506170840984	0	0	)	)
(	0.1745	(	0.570936558666127	0	0	)	)
(	0.175	(	0.573365237227681	0	0	)	)
(	0.1755	(	0.575792148005021	0	0	)	)
(	0.176	(	0.578217232520115	0	0	)	)
(	0.1765	(	0.58064043233894	0	0	)	)
(	0.177	(	0.583061689072883	0	0	)	)
(	0.1775	(	0.585480944380151	0	0	)	)
(	0.178	(	0.587898139967177	0	0	)	)
(	0.1785	(	0.590313217590026	0	0	)	)
(	0.179	(	0.592726119055795	0	0	)	)
(	0.1795	(	0.595136786224018	0	0	)	)
(	0.18	(	0.597545161008064	0	0	)	)
(	0.1805	(	0.599951185376541	0	0	)	)
(	0.181	(	0.60235480135469	0	0	)	)
(	0.1815	(	0.604755951025784	0	0	)	)
(	0.182	(	0.607154576532525	0	0	)	)
(	0.1825	(	0.609550620078435	0	0	)	)
(	0.183	(	0.611944023929249	0	0	)	)
(	0.1835	(	0.61433473041431	0	0	)	)
(	0.184	(	0.616722681927953	0	0	)	)
(	0.1845	(	0.619107820930897	0	0	)	)
(	0.185	(	0.621490089951632	0	0	)	)
(	0.1855	(	0.623869431587799	0	0	)	)
(	0.186	(	0.626245788507579	0	0	)	)
(	0.1865	(	0.62861910345107	0	0	)	)
(	0.187	(	0.630989319231669	0	0	)	)
(	0.1875	(	0.633356378737449	0	0	)	)
(	0.188	(	0.635720224932537	0	0	)	)
(	0.1885	(	0.638080800858485	0	0	)	)
(	0.189	(	0.640438049635646	0	0	)	)
(	0.1895	(	0.642791914464541	0	0	)	)
(	0.19	(	0.645142338627231	0	0	)	)
(	0.1905	(	0.647489265488682	0	0	)	)
(	0.191	(	0.649832638498128	0	0	)	)
(	0.1915	(	0.652172401190439	0	0	)	)
(	0.192	(	0.654508497187474	0	0	)	)
(	0.1925	(	0.656840870199446	0	0	)	)
(	0.193	(	0.659169464026275	0	0	)	)
(	0.1935	(	0.661494222558943	0	0	)	)
(	0.194	(	0.663815089780847	0	0	)	)
(	0.1945	(	0.666132009769145	0	0	)	)
(	0.195	(	0.66844492669611	0	0	)	)
(	0.1955	(	0.670753784830468	0	0	)	)
(	0.196	(	0.673058528538746	0	0	)	)
(	0.1965	(	0.675359102286612	0	0	)	)
(	0.197	(	0.677655450640208	0	0	)	)
(	0.1975	(	0.679947518267494	0	0	)	)
(	0.198	(	0.682235249939575	0	0	)	)
(	0.1985	(	0.684518590532033	0	0	)	)
(	0.199	(	0.686797485026258	0	0	)	)
(	0.1995	(	0.68907187851077	0	0	)	)
(	0.2	(	0.691341716182545	0	0	)	)
(	0.2005	(	0.693606943348333	0	0	)	)
(	0.201	(	0.695867505425978	0	0	)	)
(	0.2015	(	0.698123347945733	0	0	)	)
(	0.202	(	0.70037441655157	0	0	)	)
(	0.2025	(	0.702620657002495	0	0	)	)
(	0.203	(	0.704862015173848	0	0	)	)
(	0.2035	(	0.707098437058612	0	0	)	)
(	0.204	(	0.709329868768714	0	0	)	)
(	0.2045	(	0.711556256536322	0	0	)	)
(	0.205	(	0.713777546715141	0	0	)	)
(	0.2055	(	0.715993685781706	0	0	)	)
(	0.206	(	0.718204620336671	0	0	)	)
(	0.2065	(	0.720410297106097	0	0	)	)
(	0.207	(	0.722610662942734	0	0	)	)
(	0.2075	(	0.724805664827303	0	0	)	)
(	0.208	(	0.726995249869774	0	0	)	)
(	0.2085	(	0.729179365310636	0	0	)	)
(	0.209	(	0.731357958522175	0	0	)	)
(	0.2095	(	0.733530977009738	0	0	)	)
(	0.21	(	0.735698368412999	0	0	)	)
(	0.2105	(	0.737860080507218	0	0	)	)
(	0.211	(	0.740016061204505	0	0	)	)
(	0.2115	(	0.742166258555071	0	0	)	)
(	0.212	(	0.744310620748477	0	0	)	)
(	0.2125	(	0.746449096114892	0	0	)	)
(	0.213	(	0.748581633126327	0	0	)	)
(	0.2135	(	0.750708180397885	0	0	)	)
(	0.214	(	0.752828686688992	0	0	)	)
(	0.2145	(	0.75494310090464	0	0	)	)
(	0.215	(	0.757051372096611	0	0	)	)
(	0.2155	(	0.759153449464707	0	0	)	)
(	0.216	(	0.761249282357974	0	0	)	)
(	0.2165	(	0.763338820275926	0	0	)	)
(	0.217	(	0.765422012869755	0	0	)	)
(	0.2175	(	0.767498809943549	0	0	)	)
(	0.218	(	0.7695691614555	0	0	)	)
(	0.2185	(	0.771633017519112	0	0	)	)
(	0.219	(	0.773690328404398	0	0	)	)
(	0.2195	(	0.775741044539085	0	0	)	)
(	0.22	(	0.777785116509801	0	0	)	)
(	0.2205	(	0.779822495063273	0	0	)	)
(	0.221	(	0.781853131107508	0	0	)	)
(	0.2215	(	0.78387697571298	0	0	)	)
(	0.222	(	0.785893980113806	0	0	)	)
(	0.2225	(	0.787904095708923	0	0	)	)
(	0.223	(	0.789907274063257	0	0	)	)
(	0.2235	(	0.791903466908893	0	0	)	)
(	0.224	(	0.793892626146237	0	0	)	)
(	0.2245	(	0.795874703845171	0	0	)	)
(	0.225	(	0.797849652246217	0	0	)	)
(	0.2255	(	0.799817423761676	0	0	)	)
(	0.226	(	0.801777970976786	0	0	)	)
(	0.2265	(	0.803731246650856	0	0	)	)
(	0.227	(	0.805677203718408	0	0	)	)
(	0.2275	(	0.807615795290313	0	0	)	)
(	0.228	(	0.809546974654917	0	0	)	)
(	0.2285	(	0.811470695279167	0	0	)	)
(	0.229	(	0.813386910809735	0	0	)	)
(	0.2295	(	0.815295575074132	0	0	)	)
(	0.23	(	0.817196642081823	0	0	)	)
(	0.2305	(	0.819090066025333	0	0	)	)
(	0.231	(	0.820975801281351	0	0	)	)
(	0.2315	(	0.822853802411834	0	0	)	)
(	0.232	(	0.824724024165092	0	0	)	)
(	0.2325	(	0.826586421476888	0	0	)	)
(	0.233	(	0.828440949471521	0	0	)	)
(	0.2335	(	0.830287563462902	0	0	)	)
(	0.234	(	0.832126218955641	0	0	)	)
(	0.2345	(	0.833956871646108	0	0	)	)
(	0.235	(	0.835779477423509	0	0	)	)
(	0.2355	(	0.837593992370945	0	0	)	)
(	0.236	(	0.839400372766471	0	0	)	)
(	0.2365	(	0.841198575084148	0	0	)	)
(	0.237	(	0.842988555995096	0	0	)	)
(	0.2375	(	0.844770272368534	0	0	)	)
(	0.238	(	0.846543681272818	0	0	)	)
(	0.2385	(	0.848308739976482	0	0	)	)
(	0.239	(	0.850065405949262	0	0	)	)
(	0.2395	(	0.851813636863121	0	0	)	)
(	0.24	(	0.853553390593274	0	0	)	)
(	0.2405	(	0.855284625219194	0	0	)	)
(	0.241	(	0.857007299025634	0	0	)	)
(	0.2415	(	0.85872137050362	0	0	)	)
(	0.242	(	0.860426798351459	0	0	)	)
(	0.2425	(	0.862123541475733	0	0	)	)
(	0.243	(	0.863811558992287	0	0	)	)
(	0.2435	(	0.865490810227216	0	0	)	)
(	0.244	(	0.867161254717843	0	0	)	)
(	0.2445	(	0.868822852213696	0	0	)	)
(	0.245	(	0.87047556267748	0	0	)	)
(	0.2455	(	0.872119346286034	0	0	)	)
(	0.246	(	0.873754163431298	0	0	)	)
(	0.2465	(	0.875379974721267	0	0	)	)
(	0.247	(	0.876996740980935	0	0	)	)
(	0.2475	(	0.878604423253242	0	0	)	)
(	0.248	(	0.880202982800015	0	0	)	)
(	0.2485	(	0.881792381102898	0	0	)	)
(	0.249	(	0.883372579864281	0	0	)	)
(	0.2495	(	0.884943541008222	0	0	)	)
(	0.25	(	0.886505226681368	0	0	)	)
(	0.2505	(	0.888057599253864	0	0	)	)
(	0.251	(	0.889600621320258	0	0	)	)
(	0.2515	(	0.891134255700408	0	0	)	)
(	0.252	(	0.892658465440372	0	0	)	)
(	0.2525	(	0.894173213813303	0	0	)	)
(	0.253	(	0.89567846432033	0	0	)	)
(	0.2535	(	0.897174180691441	0	0	)	)
(	0.254	(	0.898660326886353	0	0	)	)
(	0.2545	(	0.900136867095387	0	0	)	)
(	0.255	(	0.901603765740322	0	0	)	)
(	0.2555	(	0.903060987475261	0	0	)	)
(	0.256	(	0.904508497187474	0	0	)	)
(	0.2565	(	0.905946259998252	0	0	)	)
(	0.257	(	0.907374241263745	0	0	)	)
(	0.2575	(	0.908792406575792	0	0	)	)
(	0.258	(	0.910200721762757	0	0	)	)
(	0.2585	(	0.911599152890348	0	0	)	)
(	0.259	(	0.912987666262437	0	0	)	)
(	0.2595	(	0.914366228421869	0	0	)	)
(	0.26	(	0.915734806151273	0	0	)	)
(	0.2605	(	0.917093366473856	0	0	)	)
(	0.261	(	0.918441876654205	0	0	)	)
(	0.2615	(	0.919780304199067	0	0	)	)
(	0.262	(	0.921108616858143	0	0	)	)
(	0.2625	(	0.922426782624854	0	0	)	)
(	0.263	(	0.923734769737117	0	0	)	)
(	0.2635	(	0.925032546678115	0	0	)	)
(	0.264	(	0.926320082177046	0	0	)	)
(	0.2645	(	0.927597345209888	0	0	)	)
(	0.265	(	0.928864305000136	0	0	)	)
(	0.2655	(	0.930120931019552	0	0	)	)
(	0.266	(	0.931367192988896	0	0	)	)
(	0.2665	(	0.932603060878656	0	0	)	)
(	0.267	(	0.933828504909772	0	0	)	)
(	0.2675	(	0.935043495554356	0	0	)	)
(	0.268	(	0.936248003536399	0	0	)	)
(	0.2685	(	0.937441999832479	0	0	)	)
(	0.269	(	0.938625455672462	0	0	)	)
(	0.2695	(	0.939798342540191	0	0	)	)
(	0.27	(	0.940960632174178	0	0	)	)
(	0.2705	(	0.942112296568278	0	0	)	)
(	0.271	(	0.943253307972373	0	0	)	)
(	0.2715	(	0.944383638893034	0	0	)	)
(	0.272	(	0.945503262094184	0	0	)	)
(	0.2725	(	0.946612150597758	0	0	)	)
(	0.273	(	0.947710277684349	0	0	)	)
(	0.2735	(	0.948797616893854	0	0	)	)
(	0.274	(	0.949874142026111	0	0	)	)
(	0.2745	(	0.950939827141531	0	0	)	)
(	0.275	(	0.951994646561722	0	0	)	)
(	0.2755	(	0.953038574870107	0	0	)	)
(	0.276	(	0.954071586912541	0	0	)	)
(	0.2765	(	0.955093657797909	0	0	)	)
(	0.277	(	0.956104762898734	0	0	)	)
(	0.2775	(	0.957104877851765	0	0	)	)
(	0.278	(	0.958093978558568	0	0	)	)
(	0.2785	(	0.959072041186102	0	0	)	)
(	0.279	(	0.960039042167298	0	0	)	)
(	0.2795	(	0.960994958201622	0	0	)	)
(	0.28	(	0.961939766255644	0	0	)	)
(	0.2805	(	0.962873443563582	0	0	)	)
(	0.281	(	0.963795967627862	0	0	)	)
(	0.2815	(	0.964707316219652	0	0	)	)
(	0.282	(	0.965607467379402	0	0	)	)
(	0.2825	(	0.96649639941737	0	0	)	)
(	0.283	(	0.967374090914146	0	0	)	)
(	0.2835	(	0.968240520721171	0	0	)	)
(	0.284	(	0.969095667961242	0	0	)	)
(	0.2845	(	0.969939512029017	0	0	)	)
(	0.285	(	0.970772032591511	0	0	)	)
(	0.2855	(	0.971593209588587	0	0	)	)
(	0.286	(	0.972403023233439	0	0	)	)
(	0.2865	(	0.973201454013069	0	0	)	)
(	0.287	(	0.973988482688755	0	0	)	)
(	0.2875	(	0.974764090296518	0	0	)	)
(	0.288	(	0.975528258147577	0	0	)	)
(	0.2885	(	0.976280967828798	0	0	)	)
(	0.289	(	0.97702220120314	0	0	)	)
(	0.2895	(	0.977751940410093	0	0	)	)
(	0.29	(	0.978470167866104	0	0	)	)
(	0.2905	(	0.979176866265006	0	0	)	)
(	0.291	(	0.979872018578429	0	0	)	)
(	0.2915	(	0.980555608056216	0	0	)	)
(	0.292	(	0.981227618226824	0	0	)	)
(	0.2925	(	0.98188803289772	0	0	)	)
(	0.293	(	0.982536836155774	0	0	)	)
(	0.2935	(	0.983174012367638	0	0	)	)
(	0.294	(	0.98379954618013	0	0	)	)
(	0.2945	(	0.984413422520594	0	0	)	)
(	0.295	(	0.985015626597272	0	0	)	)
(	0.2955	(	0.985606143899656	0	0	)	)
(	0.296	(	0.986184960198838	0	0	)	)
(	0.2965	(	0.986752061547855	0	0	)	)
(	0.297	(	0.987307434282022	0	0	)	)
(	0.2975	(	0.987851065019264	0	0	)	)
(	0.298	(	0.988382940660436	0	0	)	)
(	0.2985	(	0.988903048389641	0	0	)	)
(	0.299	(	0.989411375674536	0	0	)	)
(	0.2995	(	0.989907910266638	0	0	)	)
(	0.3	(	0.990392640201615	0	0	)	)
(	0.3005	(	0.990865553799577	0	0	)	)
(	0.301	(	0.991326639665356	0	0	)	)
(	0.3015	(	0.991775886688781	0	0	)	)
(	0.302	(	0.992213284044946	0	0	)	)
(	0.3025	(	0.99263882119447	0	0	)	)
(	0.303	(	0.993052487883754	0	0	)	)
(	0.3035	(	0.993454274145223	0	0	)	)
(	0.304	(	0.993844170297569	0	0	)	)
(	0.3045	(	0.994222166945985	0	0	)	)
(	0.305	(	0.994588254982391	0	0	)	)
(	0.3055	(	0.994942425585651	0	0	)	)
(	0.306	(	0.995284670221789	0	0	)	)
(	0.3065	(	0.995614980644193	0	0	)	)
(	0.307	(	0.995933348893813	0	0	)	)
(	0.3075	(	0.996239767299355	0	0	)	)
(	0.308	(	0.996534228477463	0	0	)	)
(	0.3085	(	0.996816725332899	0	0	)	)
(	0.309	(	0.997087251058714	0	0	)	)
(	0.3095	(	0.99734579913641	0	0	)	)
(	0.31	(	0.997592363336099	0	0	)	)
(	0.3105	(	0.997826937716651	0	0	)	)
(	0.311	(	0.998049516625844	0	0	)	)
(	0.3115	(	0.998260094700487	0	0	)	)
(	0.312	(	0.998458666866564	0	0	)	)
(	0.3125	(	0.998645228339345	0	0	)	)
(	0.313	(	0.998819774623508	0	0	)	)
(	0.3135	(	0.998982301513243	0	0	)	)
(	0.314	(	0.999132805092358	0	0	)	)
(	0.3145	(	0.999271281734368	0	0	)	)
(	0.315	(	0.999397728102586	0	0	)	)
(	0.3155	(	0.999512141150204	0	0	)	)
(	0.316	(	0.999614518120362	0	0	)	)
(	0.3165	(	0.999704856546219	0	0	)	)
(	0.317	(	0.999783154251011	0	0	)	)
(	0.3175	(	0.999849409348102	0	0	)	)
(	0.318	(	0.999903620241032	0	0	)	)
(	0.3185	(	0.999945785623554	0	0	)	)
(	0.319	(	0.999975904479664	0	0	)	)
(	0.3195	(	0.999993976083628	0	0	)	)
(	0.32	(	1	0	0	)	)
(	0.3205	(	1	0	0	)	)
(	0.321	(	1	0	0	)	)
(	0.3215	(	1	0	0	)	)
(	0.322	(	1	0	0	)	)
(	0.3225	(	1	0	0	)	)
(	0.323	(	1	0	0	)	)
(	0.3235	(	1	0	0	)	)
(	0.324	(	1	0	0	)	)
(	0.3245	(	1	0	0	)	)
(	0.325	(	1	0	0	)	)
(	0.3255	(	1	0	0	)	)
(	0.326	(	1	0	0	)	)
(	0.3265	(	1	0	0	)	)
(	0.327	(	1	0	0	)	)
(	0.3275	(	1	0	0	)	)
(	0.328	(	1	0	0	)	)
(	0.3285	(	1	0	0	)	)
(	0.329	(	1	0	0	)	)
(	0.3295	(	1	0	0	)	)
(	0.33	(	1	0	0	)	)
(	0.3305	(	1	0	0	)	)
(	0.331	(	1	0	0	)	)
(	0.3315	(	1	0	0	)	)
(	0.332	(	1	0	0	)	)
(	0.3325	(	1	0	0	)	)
(	0.333	(	1	0	0	)	)
(	0.3335	(	1	0	0	)	)
(	0.334	(	1	0	0	)	)
(	0.3345	(	1	0	0	)	)
(	0.335	(	1	0	0	)	)
(	0.3355	(	1	0	0	)	)
(	0.336	(	1	0	0	)	)
(	0.3365	(	1	0	0	)	)
(	0.337	(	1	0	0	)	)
(	0.3375	(	1	0	0	)	)
(	0.338	(	1	0	0	)	)
(	0.3385	(	1	0	0	)	)
(	0.339	(	1	0	0	)	)
(	0.3395	(	1	0	0	)	)
(	0.34	(	1	0	0	)	)
(	0.3405	(	1	0	0	)	)
(	0.341	(	1	0	0	)	)
(	0.3415	(	1	0	0	)	)
(	0.342	(	1	0	0	)	)
(	0.3425	(	1	0	0	)	)
(	0.343	(	1	0	0	)	)
(	0.3435	(	1	0	0	)	)
(	0.344	(	1	0	0	)	)
(	0.3445	(	1	0	0	)	)
(	0.345	(	1	0	0	)	)
(	0.3455	(	1	0	0	)	)
(	0.346	(	1	0	0	)	)
(	0.3465	(	1	0	0	)	)
(	0.347	(	1	0	0	)	)
(	0.3475	(	1	0	0	)	)
(	0.348	(	1	0	0	)	)
(	0.3485	(	1	0	0	)	)
(	0.349	(	1	0	0	)	)
(	0.3495	(	1	0	0	)	)
(	0.35	(	1	0	0	)	)
(	0.3505	(	1	0	0	)	)
(	0.351	(	1	0	0	)	)
(	0.3515	(	1	0	0	)	)
(	0.352	(	1	0	0	)	)
(	0.3525	(	1	0	0	)	)
(	0.353	(	1	0	0	)	)
(	0.3535	(	1	0	0	)	)
(	0.354	(	1	0	0	)	)
(	0.3545	(	1	0	0	)	)
(	0.355	(	1	0	0	)	)
(	0.3555	(	1	0	0	)	)
(	0.356	(	1	0	0	)	)
(	0.3565	(	1	0	0	)	)
(	0.357	(	1	0	0	)	)
(	0.3575	(	1	0	0	)	)
(	0.358	(	1	0	0	)	)
(	0.3585	(	1	0	0	)	)
(	0.359	(	1	0	0	)	)
(	0.3595	(	1	0	0	)	)
(	0.36	(	1	0	0	)	)
(	0.3605	(	1	0	0	)	)
(	0.361	(	1	0	0	)	)
(	0.3615	(	1	0	0	)	)
(	0.362	(	1	0	0	)	)
(	0.3625	(	1	0	0	)	)
(	0.363	(	1	0	0	)	)
(	0.3635	(	1	0	0	)	)
(	0.364	(	1	0	0	)	)
(	0.3645	(	1	0	0	)	)
(	0.365	(	1	0	0	)	)
(	0.3655	(	1	0	0	)	)
(	0.366	(	1	0	0	)	)
(	0.3665	(	1	0	0	)	)
(	0.367	(	1	0	0	)	)
(	0.3675	(	1	0	0	)	)
(	0.368	(	1	0	0	)	)
(	0.3685	(	1	0	0	)	)
(	0.369	(	1	0	0	)	)
(	0.3695	(	1	0	0	)	)
(	0.37	(	1	0	0	)	)
(	0.3705	(	1	0	0	)	)
(	0.371	(	1	0	0	)	)
(	0.3715	(	1	0	0	)	)
(	0.372	(	1	0	0	)	)
(	0.3725	(	1	0	0	)	)
(	0.373	(	1	0	0	)	)
(	0.3735	(	1	0	0	)	)
(	0.374	(	1	0	0	)	)
(	0.3745	(	1	0	0	)	)
(	0.375	(	1	0	0	)	)
(	0.3755	(	1	0	0	)	)
(	0.376	(	1	0	0	)	)
(	0.3765	(	1	0	0	)	)
(	0.377	(	1	0	0	)	)
(	0.3775	(	1	0	0	)	)
(	0.378	(	1	0	0	)	)
(	0.3785	(	1	0	0	)	)
(	0.379	(	1	0	0	)	)
(	0.3795	(	1	0	0	)	)
(	0.38	(	1	0	0	)	)
(	0.3805	(	1	0	0	)	)
(	0.381	(	1	0	0	)	)
(	0.3815	(	1	0	0	)	)
(	0.382	(	1	0	0	)	)
(	0.3825	(	1	0	0	)	)
(	0.383	(	1	0	0	)	)
(	0.3835	(	1	0	0	)	)
(	0.384	(	1	0	0	)	)
(	0.3845	(	1	0	0	)	)
(	0.385	(	1	0	0	)	)
(	0.3855	(	1	0	0	)	)
(	0.386	(	1	0	0	)	)
(	0.3865	(	1	0	0	)	)
(	0.387	(	1	0	0	)	)
(	0.3875	(	1	0	0	)	)
(	0.388	(	1	0	0	)	)
(	0.3885	(	1	0	0	)	)
(	0.389	(	1	0	0	)	)
(	0.3895	(	1	0	0	)	)
(	0.39	(	1	0	0	)	)
(	0.3905	(	1	0	0	)	)
(	0.391	(	1	0	0	)	)
(	0.3915	(	1	0	0	)	)
(	0.392	(	1	0	0	)	)
(	0.3925	(	1	0	0	)	)
(	0.393	(	1	0	0	)	)
(	0.3935	(	1	0	0	)	)
(	0.394	(	1	0	0	)	)
(	0.3945	(	1	0	0	)	)
(	0.395	(	1	0	0	)	)
(	0.3955	(	1	0	0	)	)
(	0.396	(	1	0	0	)	)
(	0.3965	(	1	0	0	)	)
(	0.397	(	1	0	0	)	)
(	0.3975	(	1	0	0	)	)
(	0.398	(	1	0	0	)	)
(	0.3985	(	1	0	0	)	)
(	0.399	(	1	0	0	)	)
(	0.3995	(	1	0	0	)	)
(	0.4	(	1	0	0	)	)
(	0.4005	(	1	0	0	)	)
(	0.401	(	1	0	0	)	)
(	0.4015	(	1	0	0	)	)
(	0.402	(	1	0	0	)	)
(	0.4025	(	1	0	0	)	)
(	0.403	(	1	0	0	)	)
(	0.4035	(	1	0	0	)	)
(	0.404	(	1	0	0	)	)
(	0.4045	(	1	0	0	)	)
(	0.405	(	1	0	0	)	)
(	0.4055	(	1	0	0	)	)
(	0.406	(	1	0	0	)	)
(	0.4065	(	1	0	0	)	)
(	0.407	(	1	0	0	)	)
(	0.4075	(	1	0	0	)	)
(	0.408	(	1	0	0	)	)
(	0.4085	(	1	0	0	)	)
(	0.409	(	1	0	0	)	)
(	0.4095	(	1	0	0	)	)
(	0.41	(	1	0	0	)	)
(	0.4105	(	1	0	0	)	)
(	0.411	(	1	0	0	)	)
(	0.4115	(	1	0	0	)	)
(	0.412	(	1	0	0	)	)
(	0.4125	(	1	0	0	)	)
(	0.413	(	1	0	0	)	)
(	0.4135	(	1	0	0	)	)
(	0.414	(	1	0	0	)	)
(	0.4145	(	1	0	0	)	)
(	0.415	(	1	0	0	)	)
(	0.4155	(	1	0	0	)	)
(	0.416	(	1	0	0	)	)
(	0.4165	(	1	0	0	)	)
(	0.417	(	1	0	0	)	)
(	0.4175	(	1	0	0	)	)
(	0.418	(	1	0	0	)	)
(	0.4185	(	1	0	0	)	)
(	0.419	(	1	0	0	)	)
(	0.4195	(	1	0	0	)	)
(	0.42	(	1	0	0	)	)
(	0.4205	(	1	0	0	)	)
(	0.421	(	1	0	0	)	)
(	0.4215	(	1	0	0	)	)
(	0.422	(	1	0	0	)	)
(	0.4225	(	1	0	0	)	)
(	0.423	(	1	0	0	)	)
(	0.4235	(	1	0	0	)	)
(	0.424	(	1	0	0	)	)
(	0.4245	(	1	0	0	)	)
(	0.425	(	1	0	0	)	)
(	0.4255	(	1	0	0	)	)
(	0.426	(	1	0	0	)	)
(	0.4265	(	1	0	0	)	)
(	0.427	(	1	0	0	)	)
(	0.4275	(	1	0	0	)	)
(	0.428	(	1	0	0	)	)
(	0.4285	(	1	0	0	)	)
(	0.429	(	1	0	0	)	)
(	0.4295	(	1	0	0	)	)
(	0.43	(	1	0	0	)	)
(	0.4305	(	1	0	0	)	)
(	0.431	(	1	0	0	)	)
(	0.4315	(	1	0	0	)	)
(	0.432	(	1	0	0	)	)
(	0.4325	(	1	0	0	)	)
(	0.433	(	1	0	0	)	)
(	0.4335	(	1	0	0	)	)
(	0.434	(	1	0	0	)	)
(	0.4345	(	1	0	0	)	)
(	0.435	(	1	0	0	)	)
(	0.4355	(	1	0	0	)	)
(	0.436	(	1	0	0	)	)
(	0.4365	(	1	0	0	)	)
(	0.437	(	1	0	0	)	)
(	0.4375	(	1	0	0	)	)
(	0.438	(	1	0	0	)	)
(	0.4385	(	1	0	0	)	)
(	0.439	(	1	0	0	)	)
(	0.4395	(	1	0	0	)	)
(	0.44	(	1	0	0	)	)
(	0.4405	(	1	0	0	)	)
(	0.441	(	1	0	0	)	)
(	0.4415	(	1	0	0	)	)
(	0.442	(	1	0	0	)	)
(	0.4425	(	1	0	0	)	)
(	0.443	(	1	0	0	)	)
(	0.4435	(	1	0	0	)	)
(	0.444	(	1	0	0	)	)
(	0.4445	(	1	0	0	)	)
(	0.445	(	1	0	0	)	)
(	0.4455	(	1	0	0	)	)
(	0.446	(	1	0	0	)	)
(	0.4465	(	1	0	0	)	)
(	0.447	(	1	0	0	)	)
(	0.4475	(	1	0	0	)	)
(	0.448	(	1	0	0	)	)
(	0.4485	(	1	0	0	)	)
(	0.449	(	1	0	0	)	)
(	0.4495	(	1	0	0	)	)
(	0.45	(	1	0	0	)	)
(	0.4505	(	1	0	0	)	)
(	0.451	(	1	0	0	)	)
(	0.4515	(	1	0	0	)	)
(	0.452	(	1	0	0	)	)
(	0.4525	(	1	0	0	)	)
(	0.453	(	1	0	0	)	)
(	0.4535	(	1	0	0	)	)
(	0.454	(	1	0	0	)	)
(	0.4545	(	1	0	0	)	)
(	0.455	(	1	0	0	)	)
(	0.4555	(	1	0	0	)	)
(	0.456	(	1	0	0	)	)
(	0.4565	(	1	0	0	)	)
(	0.457	(	1	0	0	)	)
(	0.4575	(	1	0	0	)	)
(	0.458	(	1	0	0	)	)
(	0.4585	(	1	0	0	)	)
(	0.459	(	1	0	0	)	)
(	0.4595	(	1	0	0	)	)
(	0.46	(	1	0	0	)	)
(	0.4605	(	1	0	0	)	)
(	0.461	(	1	0	0	)	)
(	0.4615	(	1	0	0	)	)
(	0.462	(	1	0	0	)	)
(	0.4625	(	1	0	0	)	)
(	0.463	(	1	0	0	)	)
(	0.4635	(	1	0	0	)	)
(	0.464	(	1	0	0	)	)
(	0.4645	(	1	0	0	)	)
(	0.465	(	1	0	0	)	)
(	0.4655	(	1	0	0	)	)
(	0.466	(	1	0	0	)	)
(	0.4665	(	1	0	0	)	)
(	0.467	(	1	0	0	)	)
(	0.4675	(	1	0	0	)	)
(	0.468	(	1	0	0	)	)
(	0.4685	(	1	0	0	)	)